Version 4
SHEET 1 1040 708
WIRE -256 -240 -304 -240
WIRE 416 -240 -176 -240
WIRE 416 -144 416 -240
WIRE 416 -48 416 -64
WIRE 416 -48 48 -48
WIRE -320 -32 -528 -32
WIRE -160 -32 -256 -32
WIRE 0 -32 -80 -32
WIRE 416 32 416 -48
WIRE -320 64 -448 64
WIRE -160 64 -256 64
WIRE 0 64 0 -32
WIRE 0 64 -80 64
WIRE 48 64 48 -48
WIRE 48 64 0 64
WIRE -320 160 -368 160
WIRE -160 160 -256 160
WIRE 0 160 0 64
WIRE 0 160 -80 160
WIRE -368 224 -368 160
WIRE -448 272 -448 64
WIRE -528 320 -528 -32
WIRE 560 448 528 448
WIRE 864 448 624 448
WIRE 960 448 864 448
WIRE 864 480 864 448
WIRE 960 480 960 448
WIRE 48 544 48 64
WIRE 128 544 48 544
WIRE 288 544 208 544
WIRE 352 544 288 544
WIRE 496 544 432 544
WIRE 528 544 528 448
WIRE 528 544 496 544
WIRE 560 544 528 544
WIRE 864 560 864 544
WIRE 864 560 816 560
WIRE 960 560 864 560
WIRE 816 592 816 560
WIRE 288 624 288 544
WIRE 496 624 496 544
FLAG -304 -240 0
FLAG -368 304 0
FLAG -448 352 0
FLAG -528 400 0
FLAG 48 64 mid
FLAG 288 688 0
FLAG 496 688 0
FLAG 560 544 checkpoint
FLAG 816 592 0
FLAG 960 448 final
SYMBOL res 400 -160 R0
SYMATTR InstName R1
SYMATTR Value 3.9k
SYMBOL res -64 -48 R90
WINDOW 0 0 56 VBottom 2
WINDOW 3 32 56 VTop 2
SYMATTR InstName R2
SYMATTR Value 4.7
SYMBOL res -64 48 R90
WINDOW 0 0 56 VBottom 2
WINDOW 3 32 56 VTop 2
SYMATTR InstName R3
SYMATTR Value 4.7
SYMBOL res -64 144 R90
WINDOW 0 0 56 VBottom 2
WINDOW 3 32 56 VTop 2
SYMATTR InstName R4
SYMATTR Value 4.7
SYMBOL cap -256 -48 R90
WINDOW 0 0 32 VBottom 2
WINDOW 3 32 32 VTop 2
SYMATTR InstName C1
SYMATTR Value 0.1µ
SYMBOL cap -256 48 R90
WINDOW 0 0 32 VBottom 2
WINDOW 3 32 32 VTop 2
SYMATTR InstName C2
SYMATTR Value 0.1µ
SYMBOL cap -256 144 R90
WINDOW 0 0 32 VBottom 2
WINDOW 3 32 32 VTop 2
SYMATTR InstName C3
SYMATTR Value 0.1µ
SYMBOL voltage -160 -240 R90
WINDOW 0 -32 56 VBottom 2
WINDOW 3 32 56 VTop 2
WINDOW 123 0 0 Left 0
WINDOW 39 0 0 Left 0
SYMATTR InstName V1
SYMATTR Value 2
SYMBOL Misc\\signal -368 208 R0
WINDOW 123 0 0 Left 0
WINDOW 39 0 0 Left 0
SYMATTR InstName V2
SYMATTR Value SINE(0 5 258k)
SYMBOL Misc\\signal -448 256 R0
WINDOW 123 0 0 Left 0
WINDOW 39 0 0 Left 0
SYMATTR InstName V3
SYMATTR Value SINE(0 5 260k)
SYMBOL Misc\\signal -528 304 R0
WINDOW 123 0 0 Left 0
WINDOW 39 0 0 Left 0
SYMATTR InstName V4
SYMATTR Value SINE(0 1 0)
SYMBOL cap 272 624 R0
SYMATTR InstName C4
SYMATTR Value 100p
SYMBOL cap 480 624 R0
SYMATTR InstName C5
SYMATTR Value 100p
SYMBOL res 224 528 R90
WINDOW 0 0 56 VBottom 2
WINDOW 3 32 56 VTop 2
SYMATTR InstName R5
SYMATTR Value 7.9k
SYMBOL res 448 528 R90
WINDOW 0 0 56 VBottom 2
WINDOW 3 32 56 VTop 2
SYMATTR InstName R6
SYMATTR Value 7.9k
SYMBOL diode 560 464 R270
WINDOW 0 32 32 VTop 2
WINDOW 3 0 32 VBottom 2
SYMATTR InstName D1
SYMBOL cap 848 480 R0
SYMATTR InstName C6
SYMATTR Value 720p
SYMBOL res 944 464 R0
SYMATTR InstName R7
SYMATTR Value 450k
TEXT -560 432 Left 2 !.tran 0 0.005 0 0.0001
