Version 4
SHEET 1 880 680
WIRE 208 -176 208 -192
WIRE 208 -176 -16 -176
WIRE 208 -144 208 -176
WIRE -16 -32 -16 -176
WIRE 208 -16 208 -64
WIRE 208 80 208 64
WIRE 272 80 208 80
WIRE 384 80 336 80
WIRE 480 80 384 80
WIRE 592 80 480 80
WIRE 208 96 208 80
WIRE 384 128 384 80
WIRE -16 144 -16 48
WIRE -16 144 -192 144
WIRE 144 144 -16 144
WIRE 208 224 208 192
WIRE 480 240 480 80
WIRE -192 272 -192 144
WIRE -16 272 -16 144
WIRE 592 272 592 80
WIRE 208 320 208 304
WIRE 384 320 384 192
WIRE 384 320 208 320
WIRE 208 336 208 320
WIRE 384 368 384 320
WIRE -192 528 -192 336
WIRE -16 528 -16 352
WIRE -16 528 -192 528
WIRE 208 528 208 496
WIRE 208 528 -16 528
WIRE 384 528 384 432
WIRE 384 528 208 528
WIRE 480 528 480 320
WIRE 480 528 384 528
WIRE 592 528 592 336
WIRE 592 528 480 528
WIRE 208 576 208 528
FLAG -400 144 0
FLAG -400 64 VCC
FLAG 208 -192 VCC
FLAG 208 576 0
SYMBOL npn 144 96 R0
SYMATTR InstName Q1
SYMBOL voltage -400 48 R0
SYMATTR InstName V1
SYMBOL res -32 -48 R0
SYMATTR InstName R1
SYMATTR Value 12k
SYMBOL ind 192 -32 R0
SYMATTR InstName Lt
SYMATTR Value 1.2µ
SYMBOL res -32 256 R0
SYMATTR InstName R2
SYMATTR Value 3.7k
SYMBOL res 192 208 R0
SYMATTR InstName Re
SYMATTR Value 44
SYMBOL ind 192 320 R0
SYMATTR InstName RFC
SYMATTR Value RFC
SYMBOL res 192 400 R0
SYMATTR InstName RE
SYMATTR Value 700
SYMBOL cap -208 272 R0
SYMATTR InstName Cb
SYMATTR Value 0.0033µ
SYMBOL cap 368 128 R0
SYMATTR InstName C1
SYMATTR Value 218p
SYMBOL cap 368 368 R0
SYMATTR InstName C2
SYMATTR Value 2842p
SYMBOL cap 336 64 R90
WINDOW 0 0 32 VBottom 2
WINDOW 3 32 32 VTop 2
SYMATTR InstName CC
SYMATTR Value 0.0033µ
SYMBOL res 464 224 R0
SYMATTR InstName RL
SYMATTR Value 5371
SYMBOL cap 576 272 R0
SYMATTR InstName Cf
SYMATTR Value 10p
SYMBOL res 192 -160 R0
SYMATTR InstName Rp
SYMATTR Value 11.3k
