Version 4
SHEET 1 2740 680
WIRE 624 -272 560 -272
WIRE 704 -272 624 -272
WIRE 768 -272 704 -272
WIRE 928 -272 848 -272
WIRE 1024 -272 928 -272
WIRE 1184 -272 1104 -272
WIRE 1280 -272 1184 -272
WIRE 1440 -272 1360 -272
WIRE 1456 -272 1440 -272
WIRE 1552 -272 1520 -272
WIRE 928 -256 928 -272
WIRE 1184 -256 1184 -272
WIRE 1456 -224 1456 -272
WIRE -416 -160 -416 -176
WIRE 320 -80 240 -80
WIRE 416 -80 384 -80
WIRE 64 16 64 -80
WIRE 160 16 64 16
WIRE 288 16 160 16
WIRE 384 16 288 16
WIRE 560 64 560 32
WIRE 1872 80 1872 0
WIRE 240 96 240 -80
WIRE 288 96 240 96
WIRE 1264 128 1264 80
WIRE 1264 128 1184 128
WIRE 1344 128 1264 128
WIRE 0 144 -176 144
WIRE 64 144 64 96
WIRE 96 144 64 144
WIRE 384 144 384 96
WIRE 384 144 352 144
WIRE 560 144 448 144
WIRE 1696 144 1664 144
WIRE 1824 144 1776 144
WIRE 2080 144 1984 144
WIRE 64 176 64 144
WIRE -1360 192 -1360 144
WIRE -1360 192 -1440 192
WIRE -1280 192 -1360 192
WIRE 208 192 160 192
WIRE 288 192 208 192
WIRE 384 192 384 144
WIRE 1984 192 1984 144
WIRE 2016 192 1984 192
WIRE -928 208 -960 208
WIRE -800 208 -848 208
WIRE -544 208 -640 208
WIRE 2080 208 2080 144
WIRE 2112 208 2080 208
WIRE 1344 224 1344 208
WIRE 1456 224 1344 224
WIRE 1664 224 1664 144
WIRE 1664 224 1520 224
WIRE 1696 224 1664 224
WIRE 1824 224 1824 144
WIRE 1824 224 1776 224
WIRE 1872 224 1872 144
WIRE 1872 224 1824 224
WIRE 1936 224 1872 224
WIRE 2000 224 1984 224
WIRE 2016 224 2000 224
WIRE 1344 240 1344 224
WIRE -640 256 -640 208
WIRE -608 256 -640 256
WIRE -544 272 -544 208
WIRE -512 272 -544 272
WIRE 208 272 160 272
WIRE 256 272 208 272
WIRE 1664 272 1664 224
WIRE 1824 272 1824 224
WIRE -1280 288 -1280 272
WIRE -1168 288 -1280 288
WIRE -960 288 -960 208
WIRE -960 288 -1104 288
WIRE -928 288 -960 288
WIRE -800 288 -800 208
WIRE -800 288 -848 288
WIRE -688 288 -800 288
WIRE -624 288 -640 288
WIRE -608 288 -624 288
WIRE 912 288 864 288
WIRE 1040 288 976 288
WIRE 1184 288 1184 208
WIRE 1184 288 1120 288
WIRE 1280 288 1184 288
WIRE -1280 304 -1280 288
WIRE -960 336 -960 288
WIRE -800 336 -800 288
WIRE -1712 352 -1760 352
WIRE -1600 352 -1648 352
WIRE -1440 352 -1440 272
WIRE -1440 352 -1520 352
WIRE -1344 352 -1440 352
WIRE 208 352 160 352
WIRE 256 352 256 336
WIRE 256 352 208 352
WIRE 1344 352 1344 336
WIRE 1504 352 1344 352
WIRE 208 384 208 352
WIRE 1184 384 1184 288
WIRE 1344 384 1344 352
WIRE 1504 400 1504 352
WIRE 1664 400 1664 336
WIRE 1824 400 1824 336
WIRE -1280 416 -1280 400
WIRE -1120 416 -1280 416
WIRE -1440 448 -1440 352
WIRE -1280 448 -1280 416
WIRE -1120 464 -1120 416
WIRE -960 464 -960 400
WIRE -800 464 -800 400
WIRE 1184 512 1184 464
WIRE 1344 512 1344 464
WIRE 1504 512 1504 464
WIRE 864 544 864 288
WIRE 1936 544 1936 224
WIRE 1936 544 864 544
WIRE -1440 576 -1440 528
WIRE -1280 576 -1280 528
WIRE -1120 576 -1120 528
WIRE -1760 608 -1760 352
WIRE -688 608 -688 288
WIRE -688 608 -1760 608
FLAG 208 384 0
FLAG 64 256 0
FLAG 384 272 0
FLAG -416 -80 0
FLAG 784 -96 0
FLAG 416 -80 MixOut
FLAG 560 224 0
FLAG -176 224 0
FLAG 1552 -272 FilterOut
FLAG 560 -272 MixOut
FLAG 1184 -192 0
FLAG 928 -192 0
FLAG 1456 -144 0
FLAG 1440 -272 5order
FLAG 624 -208 0
FLAG 704 -208 0
FLAG -1360 144 vcc
FLAG 16 -320 vcc
FLAG 16 -240 0
FLAG -1120 576 0
FLAG -1280 576 0
FLAG -1440 576 0
FLAG -1280 288 LO-Collector
FLAG -512 272 LO-Out
FLAG 64 -80 vcc
FLAG -176 64 LO-Out
FLAG 1264 80 vcc
FLAG 1504 512 0
FLAG 1344 512 0
FLAG 1184 512 0
FLAG 1344 224 RF-Collector
FLAG 1184 288 B
FLAG 1824 400 0
FLAG 1664 400 0
FLAG 2112 208 RF-Out
FLAG 1872 0 0
FLAG -800 464 0
FLAG -960 464 0
FLAG 560 32 RF-Out
DATAFLAG -1280 288 ""
SYMBOL npn 96 96 R0
SYMATTR InstName Q1
SYMATTR Value BC337-25
SYMBOL npn 352 96 M0
SYMATTR InstName Q2
SYMATTR Value BC337-25
SYMBOL res 192 176 R0
SYMATTR InstName R1
SYMATTR Value 500
SYMBOL res 144 256 R0
SYMATTR InstName R2
SYMATTR Value 3k
SYMBOL cap 240 272 R0
SYMATTR InstName C1
SYMATTR Value 440µF
SYMBOL res 48 0 R0
SYMATTR InstName R4
SYMATTR Value 309k
SYMBOL res 48 160 R0
SYMATTR InstName R5
SYMATTR Value 110k
SYMBOL res 368 176 R0
SYMATTR InstName R6
SYMATTR Value 110k
SYMBOL res 368 0 R0
SYMATTR InstName R7
SYMATTR Value 309k
SYMBOL cap 64 128 R90
WINDOW 0 0 32 VBottom 2
WINDOW 3 32 32 VTop 2
SYMATTR InstName C2
SYMATTR Value 47µF
SYMBOL cap 448 128 R90
WINDOW 0 0 32 VBottom 2
WINDOW 3 32 32 VTop 2
SYMATTR InstName C3
SYMATTR Value 47µF
SYMBOL voltage -416 -176 R0
WINDOW 123 0 0 Left 0
WINDOW 39 0 0 Left 0
SYMATTR InstName V2
SYMATTR Value SINE(0 6 218000)
SYMBOL voltage 784 -192 R0
WINDOW 123 0 0 Left 0
WINDOW 39 0 0 Left 0
SYMATTR InstName V3
SYMATTR Value SINE(0 6 215000)
SYMBOL cap 384 -96 R90
WINDOW 0 0 32 VBottom 2
WINDOW 3 32 32 VTop 2
SYMATTR InstName C4
SYMATTR Value 47µF
SYMBOL res 544 128 R0
SYMATTR InstName R12
SYMATTR Value 2k
SYMBOL res 544 48 R0
SYMATTR InstName R13
SYMATTR Value 100k
SYMBOL res 272 0 R0
SYMATTR InstName R14
SYMATTR Value 3k
SYMBOL res -192 128 R0
SYMATTR InstName R15
SYMATTR Value 45k
SYMBOL res -192 48 R0
SYMATTR InstName R16
SYMATTR Value 100k
SYMBOL ind 752 -256 R270
WINDOW 0 32 56 VTop 2
WINDOW 3 5 56 VBottom 2
SYMATTR InstName L1
SYMATTR Value 86m
SYMBOL ind 1008 -256 R270
WINDOW 0 32 56 VTop 2
WINDOW 3 5 56 VBottom 2
SYMATTR InstName L2
SYMATTR Value 68m
SYMBOL cap 912 -256 R0
SYMATTR InstName C7
SYMATTR Value 3.9n
SYMBOL cap 1168 -256 R0
SYMATTR InstName C8
SYMATTR Value 1.5n
SYMBOL ind 1264 -256 R270
WINDOW 0 32 56 VTop 2
WINDOW 3 5 56 VBottom 2
SYMATTR InstName L3
SYMATTR Value 15m
SYMBOL res 1440 -240 R0
SYMATTR InstName R3
SYMATTR Value 5K
SYMBOL diode 608 -272 R0
SYMATTR InstName D1
SYMATTR Value 1N4148
SYMBOL cap 688 -272 R0
WINDOW 0 36 17 Left 2
WINDOW 3 35 50 Left 2
SYMATTR InstName C9
SYMATTR Value 39n
SYMBOL cap 1520 -288 R90
WINDOW 0 0 32 VBottom 2
WINDOW 3 32 32 VTop 2
SYMATTR InstName C10
SYMATTR Value 47µF
SYMBOL res -1456 176 R0
SYMATTR InstName RB1
SYMATTR Value 309k
SYMBOL res -1296 176 R0
SYMATTR InstName RC1
SYMATTR Value 6k98
SYMBOL res -1296 432 R0
SYMATTR InstName RE1
SYMATTR Value 4k75
SYMBOL res -1456 432 R0
SYMATTR InstName RB2
SYMATTR Value 110k
SYMBOL polcap -1136 464 R0
SYMATTR InstName C6
SYMATTR Value 10µ
SYMBOL voltage 16 -336 R0
WINDOW 123 0 0 Left 0
WINDOW 39 0 0 Left 0
SYMATTR InstName V4
SYMATTR Value 12
SYMBOL npn -1344 304 R0
SYMATTR InstName Q3
SYMATTR Value BC337-25
SYMBOL res -1504 336 R90
WINDOW 0 0 56 VBottom 2
WINDOW 3 32 56 VTop 2
SYMATTR InstName R8
SYMATTR Value 15k
SYMBOL polcap -1168 272 M90
WINDOW 0 0 32 VBottom 2
WINDOW 3 32 32 VTop 2
SYMATTR InstName C12
SYMATTR Value 1µ
SYMBOL polcap -1712 336 M90
WINDOW 0 0 32 VBottom 2
WINDOW 3 32 32 VTop 2
SYMATTR InstName C13
SYMATTR Value 1µ
SYMBOL res 1168 112 R0
SYMATTR InstName RB3
SYMATTR Value 309k
SYMBOL res 1328 112 R0
SYMATTR InstName RC2
SYMATTR Value 6.98k
SYMBOL res 1328 368 R0
SYMATTR InstName RE2
SYMATTR Value 4k75
SYMBOL res 1168 368 R0
SYMATTR InstName RB4
SYMATTR Value 110k
SYMBOL polcap 1488 400 R0
SYMATTR InstName C16
SYMATTR Value 10µ
SYMBOL npn 1280 240 R0
SYMATTR InstName Q4
SYMATTR Value BC337-25
SYMBOL res 1136 272 R90
WINDOW 0 0 56 VBottom 2
WINDOW 3 32 56 VTop 2
SYMATTR InstName R11
SYMATTR Value 15k
SYMBOL ind 1792 240 M270
WINDOW 0 32 56 VTop 2
WINDOW 3 5 56 VBottom 2
SYMATTR InstName L7
SYMATTR Value 3.3m
SYMBOL cap 1808 272 R0
SYMATTR InstName C18
SYMATTR Value 68p
SYMBOL cap 1648 272 R0
SYMATTR InstName C19
SYMATTR Value 470p
SYMBOL cap 1856 80 R0
SYMATTR InstName CAnt1
SYMATTR Value 2pF
SYMBOL polcap 912 272 M90
WINDOW 0 0 32 VBottom 2
WINDOW 3 32 32 VTop 2
SYMATTR InstName C20
SYMATTR Value 1µ
SYMBOL polcap 1456 208 M90
WINDOW 0 0 32 VBottom 2
WINDOW 3 32 32 VTop 2
SYMATTR InstName C21
SYMATTR Value 1µ
SYMBOL ind 1680 160 R270
WINDOW 0 32 56 VTop 2
WINDOW 3 5 56 VBottom 2
SYMATTR InstName L8
SYMATTR Value 3.3m
SYMBOL ind -832 304 M270
WINDOW 0 32 56 VTop 2
WINDOW 3 5 56 VBottom 2
SYMATTR InstName L9
SYMATTR Value 3.3m
SYMBOL cap -816 336 R0
SYMATTR InstName C24
SYMATTR Value 68p
SYMBOL cap -976 336 R0
SYMATTR InstName C25
SYMATTR Value 470p
SYMBOL ind -944 224 R270
WINDOW 0 32 56 VTop 2
WINDOW 3 5 56 VBottom 2
SYMATTR InstName L10
SYMATTR Value 3.3m
SYMBOL res 144 0 R0
SYMATTR InstName R17
SYMATTR Value 3k
SYMBOL OpAmps\\opamp -576 208 R0
SYMATTR InstName U3
SYMBOL cap -624 272 R90
WINDOW 0 0 32 VBottom 2
WINDOW 3 32 32 VTop 2
SYMATTR InstName C15
SYMATTR Value 1µF
SYMBOL OpAmps\\opamp 2048 144 R0
SYMATTR InstName U4
SYMBOL cap 2000 208 R90
WINDOW 0 0 32 VBottom 2
WINDOW 3 32 32 VTop 2
SYMATTR InstName C23
SYMATTR Value 1µF
TEXT -296 -280 Left 2 !.tran 0 .5 0 0.0001
TEXT -296 -240 Left 2 !.lib opamp.sub
