Version 4
SHEET 1 1624 680
WIRE 960 -96 528 -96
WIRE 320 -80 288 -80
WIRE 960 -32 960 -96
WIRE 960 -32 880 -32
WIRE 1008 -32 960 -32
WIRE 224 16 64 16
WIRE 384 16 224 16
WIRE 528 16 528 -96
WIRE 1360 32 1216 32
WIRE 800 48 784 48
WIRE 880 48 864 48
WIRE -80 64 -336 64
WIRE -336 80 -336 64
WIRE 224 96 160 96
WIRE 288 96 288 -80
WIRE 288 96 224 96
WIRE 1008 96 1008 48
WIRE 1008 96 944 96
WIRE 1216 96 1216 32
WIRE 1216 96 1152 96
WIRE 1216 112 1216 96
WIRE -80 144 -80 64
WIRE 0 144 -80 144
WIRE 64 144 64 96
WIRE 96 144 64 144
WIRE 384 144 384 96
WIRE 384 144 352 144
WIRE 784 144 784 48
WIRE 1008 144 1008 96
WIRE 64 176 64 144
WIRE 208 192 160 192
WIRE 288 192 208 192
WIRE 384 192 384 144
WIRE 944 224 880 224
WIRE 1008 224 944 224
WIRE 944 256 944 224
WIRE 208 272 160 272
WIRE 256 272 208 272
WIRE 208 352 160 352
WIRE 256 352 256 336
WIRE 256 352 208 352
FLAG 208 352 0
FLAG 64 256 0
FLAG 384 272 0
FLAG 528 96 0
FLAG -336 160 0
FLAG 1360 112 0
FLAG 384 -80 Out
FLAG -80 144 Left
FLAG 1216 112 Right
FLAG 448 144 0
FLAG 784 144 t
FLAG 944 256 0
SYMBOL npn 96 96 R0
SYMATTR InstName Q1
SYMATTR Value BC337-25
SYMBOL npn 352 96 M0
SYMATTR InstName Q2
SYMATTR Value BC337-25
SYMBOL res 192 176 R0
SYMATTR InstName R1
SYMATTR Value 500
SYMBOL res 144 256 R0
SYMATTR InstName R2
SYMATTR Value 3k
SYMBOL cap 240 272 R0
SYMATTR InstName C1
SYMATTR Value 440µF
SYMBOL res 208 0 R0
SYMATTR InstName R3
SYMATTR Value 3k
SYMBOL res 48 0 R0
SYMATTR InstName R4
SYMATTR Value 309k
SYMBOL res 48 160 R0
SYMATTR InstName R5
SYMATTR Value 110k
SYMBOL res 368 176 R0
SYMATTR InstName R6
SYMATTR Value 110k
SYMBOL res 368 0 R0
SYMATTR InstName R7
SYMATTR Value 309k
SYMBOL voltage 528 0 R0
WINDOW 123 0 0 Left 0
WINDOW 39 0 0 Left 0
SYMATTR InstName V1
SYMATTR Value 12
SYMBOL cap 64 128 R90
WINDOW 0 0 32 VBottom 2
WINDOW 3 32 32 VTop 2
SYMATTR InstName C2
SYMATTR Value 1µF
SYMBOL cap 448 128 R90
WINDOW 0 0 32 VBottom 2
WINDOW 3 32 32 VTop 2
SYMATTR InstName C3
SYMATTR Value 1µF
SYMBOL voltage -336 64 R0
WINDOW 123 0 0 Left 0
WINDOW 39 0 0 Left 0
SYMATTR InstName V2
SYMATTR Value SINE(0 0.1 218000)
SYMBOL voltage 1360 16 R0
WINDOW 123 0 0 Left 0
WINDOW 39 0 0 Left 0
SYMATTR InstName V3
SYMATTR Value SINE(0 6 215000)
SYMBOL cap 384 -96 R90
WINDOW 0 0 32 VBottom 2
WINDOW 3 32 32 VTop 2
SYMATTR InstName C4
SYMATTR Value 47µF
SYMBOL npn 944 48 M0
SYMATTR InstName Q3
SYMATTR Value BC337-25
SYMBOL res 864 128 R0
SYMATTR InstName R8
SYMATTR Value 100K
SYMBOL res 864 -48 R0
SYMATTR InstName R9
SYMATTR Value 100K
SYMBOL res 992 -48 R0
SYMATTR InstName R10
SYMATTR Value 100k
SYMBOL res 992 128 R0
SYMATTR InstName R11
SYMATTR Value 100k
SYMBOL cap 1152 80 R90
WINDOW 0 0 32 VBottom 2
WINDOW 3 32 32 VTop 2
SYMATTR InstName C5
SYMATTR Value 1µF
SYMBOL cap 864 32 R90
WINDOW 0 0 32 VBottom 2
WINDOW 3 32 32 VTop 2
SYMATTR InstName C6
SYMATTR Value 1µF
SYMBOL res 1104 80 R90
WINDOW 0 0 56 VBottom 2
WINDOW 3 32 56 VTop 2
SYMATTR InstName R12
SYMATTR Value 10k
TEXT -256 376 Left 2 !.tran 0.01
