Version 4
SHEET 1 1408 680
WIRE -528 -48 -528 -80
WIRE -64 16 -64 -32
WIRE -64 16 -144 16
WIRE 16 16 -64 16
WIRE -528 48 -528 16
WIRE 16 112 16 96
WIRE 128 112 16 112
WIRE 240 112 240 48
WIRE 240 112 192 112
WIRE 336 112 240 112
WIRE 368 112 336 112
WIRE 496 112 448 112
WIRE 608 112 496 112
WIRE 16 128 16 112
WIRE 336 160 336 112
WIRE 496 160 496 112
WIRE -432 176 -464 176
WIRE -288 176 -368 176
WIRE -144 176 -144 96
WIRE -144 176 -208 176
WIRE -48 176 -144 176
WIRE -528 192 -528 128
WIRE 16 240 16 224
WIRE 176 240 16 240
WIRE -144 272 -144 176
WIRE 16 272 16 240
WIRE 176 288 176 240
WIRE 336 288 336 224
WIRE 496 288 496 224
WIRE -144 400 -144 352
WIRE 16 400 16 352
WIRE 176 400 176 352
WIRE -464 432 -464 176
WIRE 608 432 608 112
WIRE 608 432 -464 432
FLAG -64 -32 vcc
FLAG 688 240 vcc
FLAG 688 320 0
FLAG 240 48 Out
FLAG 176 400 0
FLAG 16 400 0
FLAG -144 400 0
FLAG 16 112 Collector
FLAG -528 192 0
FLAG -144 176 B
FLAG 496 288 0
FLAG 336 288 0
FLAG -528 -80 Collector
SYMBOL res -160 0 R0
SYMATTR InstName RB1
SYMATTR Value 309k
SYMBOL res 0 0 R0
SYMATTR InstName RC
SYMATTR Value {Rvar}
SYMBOL res 0 256 R0
SYMATTR InstName RE
SYMATTR Value 1k
SYMBOL res -160 256 R0
SYMATTR InstName RB2
SYMATTR Value 110k
SYMBOL polcap 160 288 R0
SYMATTR InstName C3
SYMATTR Value 10µ
SYMBOL voltage 688 224 R0
WINDOW 123 0 0 Left 0
WINDOW 39 0 0 Left 0
SYMATTR InstName V1
SYMATTR Value 12
SYMBOL polcap -544 -48 R0
SYMATTR InstName C6
SYMATTR Value 1µ
SYMBOL res -544 32 R0
SYMATTR InstName R2
SYMATTR Value 300k
SYMBOL cap -368 160 R90
WINDOW 0 0 32 VBottom 2
WINDOW 3 32 32 VTop 2
SYMATTR InstName C4
SYMATTR Value 1µ
SYMBOL cap 192 96 R90
WINDOW 0 0 32 VBottom 2
WINDOW 3 32 32 VTop 2
SYMATTR InstName C5
SYMATTR Value 1µ
SYMBOL npn -48 128 R0
SYMATTR InstName Q1
SYMATTR Value BC337-25
SYMBOL res -192 160 R90
WINDOW 0 0 56 VBottom 2
WINDOW 3 32 56 VTop 2
SYMATTR InstName R1
SYMATTR Value 100k
SYMBOL ind 464 128 M270
WINDOW 0 32 56 VTop 2
WINDOW 3 5 56 VBottom 2
SYMATTR InstName L1
SYMATTR Value 100m
SYMBOL cap 480 160 R0
SYMATTR InstName C1
SYMATTR Value 8p
SYMBOL cap 320 160 R0
SYMATTR InstName C2
SYMATTR Value 10p
TEXT -464 440 Left 2 !.tran 0 0.05 0 0.000001
TEXT -456 472 Left 2 ;.step param Cvar 2p 10p 0.5p
TEXT 0 472 Left 2 ;.step param Lvar 4.7m 47m 5m
TEXT -456 528 Left 2 !.lib opamp.sub
TEXT 0 520 Left 2 !.step param Rvar 1k 20k 1k
