Version 4
SHEET 1 880 680
WIRE -64 16 -64 -32
WIRE -64 16 -144 16
WIRE 16 16 -64 16
WIRE 16 112 16 96
WIRE 128 112 16 112
WIRE 240 112 240 48
WIRE 240 112 192 112
WIRE 336 112 240 112
WIRE 384 112 336 112
WIRE 512 112 464 112
WIRE 608 112 512 112
WIRE 16 128 16 112
WIRE 336 144 336 112
WIRE 512 144 512 112
WIRE -400 176 -464 176
WIRE -144 176 -144 96
WIRE -144 176 -336 176
WIRE -48 176 -144 176
WIRE 16 240 16 224
WIRE 64 240 16 240
WIRE 176 240 144 240
WIRE 336 256 336 208
WIRE 512 256 512 208
WIRE -144 272 -144 176
WIRE 16 272 16 240
WIRE 176 288 176 240
WIRE -144 400 -144 352
WIRE 16 400 16 352
WIRE 176 400 176 352
WIRE -464 432 -464 176
WIRE 608 432 608 112
WIRE 608 432 -464 432
FLAG -144 400 0
FLAG -64 -32 vcc
FLAG 688 240 vcc
FLAG 688 320 0
FLAG 240 48 Out
FLAG 656 -16 0
FLAG 656 64 vcc-
FLAG 16 400 0
FLAG 176 400 0
FLAG 336 256 0
FLAG 512 256 0
SYMBOL res -160 0 R0
SYMATTR InstName RB1
SYMATTR Value 10k
SYMBOL res 0 0 R0
SYMATTR InstName RC
SYMATTR Value 1k
SYMBOL res 0 256 R0
SYMATTR InstName RE
SYMATTR Value 1k
SYMBOL res -160 256 R0
SYMATTR InstName RB2
SYMATTR Value 2.2k
SYMBOL res 160 224 R90
WINDOW 0 0 56 VBottom 2
WINDOW 3 32 56 VTop 2
SYMATTR InstName R5
SYMATTR Value 1k
SYMBOL cap 192 96 R90
WINDOW 0 0 32 VBottom 2
WINDOW 3 32 32 VTop 2
SYMATTR InstName CDCB2
SYMATTR Value 220n
SYMBOL cap -336 160 R90
WINDOW 0 0 32 VBottom 2
WINDOW 3 32 32 VTop 2
SYMATTR InstName CDCB1
SYMATTR Value 220n
SYMBOL cap 320 144 R0
SYMATTR InstName C2
SYMATTR Value 3.9n
SYMBOL cap 496 144 R0
SYMATTR InstName C1
SYMATTR Value 3.9n
SYMBOL ind 368 128 R270
WINDOW 0 32 56 VTop 2
WINDOW 3 5 56 VBottom 2
SYMATTR InstName L1
SYMATTR Value 224µ
SYMBOL polcap 160 288 R0
SYMATTR InstName C3
SYMATTR Value 10µ
SYMBOL voltage 688 224 R0
WINDOW 123 0 0 Left 0
WINDOW 39 0 0 Left 0
SYMATTR InstName V1
SYMATTR Value 12
SYMBOL npn -48 128 R0
SYMATTR InstName Q1
SYMATTR Value BC337-25
SYMBOL voltage 656 -32 R0
WINDOW 123 0 0 Left 0
WINDOW 39 0 0 Left 0
SYMATTR InstName V2
SYMATTR Value 12
TEXT -464 440 Left 2 !.tran 0 0.01 0 0.0001
