Version 4
SHEET 1 880 680
WIRE 432 -32 304 -32
WIRE 528 -32 432 -32
WIRE 432 80 432 48
WIRE 432 80 32 80
WIRE 496 80 432 80
WIRE 608 80 560 80
WIRE 432 96 432 80
WIRE 32 144 32 80
WIRE 48 144 32 144
WIRE 144 144 128 144
WIRE 192 144 144 144
WIRE 304 144 304 48
WIRE 304 144 256 144
WIRE 368 144 304 144
WIRE 304 208 304 144
WIRE 432 208 432 192
WIRE 528 208 432 208
WIRE 32 224 32 144
WIRE 144 224 144 144
WIRE 528 224 528 208
WIRE 144 288 32 288
WIRE 256 288 144 288
WIRE 304 288 256 288
WIRE 432 288 304 288
WIRE 528 288 432 288
WIRE 256 320 256 288
WIRE 432 352 304 352
WIRE 304 400 304 352
WIRE 336 400 304 400
WIRE 432 416 432 352
WIRE 432 416 400 416
WIRE 512 416 432 416
WIRE 336 432 224 432
FLAG -96 176 0
FLAG -96 96 vcc
FLAG 256 320 0
FLAG 528 -32 vcc
FLAG 608 80 OscOut
FLAG 512 416 AmpOut
FLAG -384 368 0
FLAG -384 288 v+
FLAG 368 384 v+
FLAG 368 448 v-
FLAG -288 288 0
FLAG -288 368 v-
FLAG 224 432 OscOut
SYMBOL voltage -96 80 R0
WINDOW 123 0 0 Left 0
WINDOW 39 0 0 Left 0
SYMATTR InstName V1
SYMATTR Value 12
SYMBOL cap 16 224 R0
SYMATTR InstName C1
SYMATTR Value 24n
SYMBOL cap 128 224 R0
SYMATTR InstName C2
SYMATTR Value 240n
SYMBOL res 288 192 R0
SYMATTR InstName R1
SYMATTR Value 4.7k
SYMBOL res 288 -48 R0
SYMATTR InstName R2
SYMATTR Value 10k
SYMBOL ind 416 -48 R0
SYMATTR InstName L2
SYMATTR Value 300m
SYMBOL res 416 192 R0
SYMATTR InstName R3
SYMATTR Value 1.5k
SYMBOL cap 256 128 R90
WINDOW 0 0 32 VBottom 2
WINDOW 3 32 32 VTop 2
SYMATTR InstName C3
SYMATTR Value 1µ
SYMBOL ind 144 128 R90
WINDOW 0 5 56 VBottom 2
WINDOW 3 32 56 VTop 2
SYMATTR InstName L1
SYMATTR Value 10m
SYMBOL cap 512 224 R0
SYMATTR InstName C4
SYMATTR Value 0.1µ
SYMBOL cap 560 64 R90
WINDOW 0 0 32 VBottom 2
WINDOW 3 32 32 VTop 2
SYMATTR InstName C5
SYMATTR Value 1µ
SYMBOL npn 368 96 R0
SYMATTR InstName Q1
SYMATTR Value 2N2222
SYMBOL voltage -384 272 R0
WINDOW 123 0 0 Left 0
WINDOW 39 0 0 Left 0
SYMATTR InstName V2
SYMATTR Value 45
SYMBOL voltage -288 272 R0
WINDOW 123 0 0 Left 0
WINDOW 39 0 0 Left 0
SYMATTR InstName V3
SYMATTR Value 45
SYMBOL OpAmps\\OP77 368 352 R0
SYMATTR InstName U1
TEXT -128 344 Left 2 !.tran 0 0.03 0 0.0001
