Version 4
SHEET 1 880 680
WIRE -144 -112 -144 -128
WIRE 32 -48 -96 -48
WIRE 320 -48 32 -48
WIRE 528 -48 320 -48
WIRE 32 -32 32 -48
WIRE 32 -32 0 -32
WIRE 48 -32 32 -32
WIRE -144 -16 -144 -32
WIRE -96 0 -96 -48
WIRE 32 48 0 48
WIRE 48 48 32 48
WIRE -144 80 -144 64
WIRE -96 80 -96 64
WIRE -96 80 -144 80
WIRE 32 80 32 48
WIRE 32 80 -96 80
WIRE 96 80 32 80
WIRE 176 80 96 80
WIRE 416 80 240 80
WIRE -240 96 -240 64
WIRE -240 96 -304 96
WIRE 96 112 96 80
WIRE 320 112 320 -48
WIRE 528 128 528 -48
WIRE 32 160 -16 160
WIRE 416 160 384 160
WIRE 320 208 96 208
WIRE 528 240 528 192
WIRE 528 240 416 240
WIRE 416 256 416 240
FLAG 416 256 0
FLAG -16 240 0
FLAG 320 -48 +VCC
FLAG 96 288 -VCC
FLAG -96 80 out
FLAG -304 96 0
FLAG -240 -16 +VCC
FLAG -240 176 -VCC
FLAG -144 -272 0
SYMBOL npn 384 112 M0
SYMATTR InstName Q1
SYMATTR Value BC337-25
SYMBOL npn 32 112 R0
SYMATTR InstName Q2
SYMATTR Value BC337-25
SYMBOL res 400 64 R0
SYMATTR InstName R1
SYMATTR Value 47k
SYMBOL res 400 144 R0
SYMATTR InstName R2
SYMATTR Value 1k
SYMBOL polcap 512 128 R0
SYMATTR InstName C1
SYMATTR Value 1µF
SYMBOL cap -112 0 R0
SYMATTR InstName C2
SYMATTR Value 3.9nF
SYMBOL res 80 192 R0
SYMATTR InstName R3
SYMATTR Value 2.2k
SYMBOL res -32 144 R0
SYMATTR InstName R4
SYMATTR Value 1k
SYMBOL cap 240 64 R90
WINDOW 0 0 32 VBottom 2
WINDOW 3 32 32 VTop 2
SYMATTR InstName C3
SYMATTR Value 10nF
SYMBOL voltage -240 -32 R0
SYMATTR InstName V1
SYMATTR Value 12V
SYMBOL voltage -240 80 R0
SYMATTR InstName V2
SYMATTR Value 12V
SYMBOL ind -160 -224 R0
SYMATTR InstName L2
SYMATTR Value 10m
SYMBOL cap -160 -272 R0
SYMATTR InstName C4
SYMATTR Value 0.1p
SYMBOL ind -160 -128 R0
SYMATTR InstName L3
SYMATTR Value 15m
SYMBOL ind -160 -32 R0
SYMATTR InstName L4
SYMATTR Value 15m
SYMBOL ind -16 -48 R0
SYMATTR InstName L1
SYMATTR Value 224µ
SYMBOL ind 32 -48 R0
SYMATTR InstName L5
SYMATTR Value 224µ
TEXT -304 400 Left 2 !.tran 0 0.5 0 0.0001
TEXT -432 328 Left 2 ;.step param Cvar 1p 20p 1p
