Version 4
SHEET 1 880 680
WIRE 112 -272 16 -272
WIRE 272 -272 192 -272
WIRE 368 -272 272 -272
WIRE 592 -272 448 -272
WIRE 608 -272 592 -272
WIRE 272 -256 272 -272
WIRE 16 -224 16 -272
WIRE 608 -224 608 -272
WIRE 96 144 0 144
WIRE 256 144 176 144
WIRE 352 144 256 144
WIRE 512 144 432 144
WIRE 608 144 512 144
WIRE 768 144 688 144
WIRE 784 144 768 144
WIRE 256 160 256 144
WIRE 512 160 512 144
WIRE 0 192 0 144
WIRE 784 192 784 144
FLAG 512 224 0
FLAG 256 224 0
FLAG 784 272 0
FLAG 0 272 0
FLAG 272 -192 0
FLAG 608 -144 0
FLAG 16 -144 0
FLAG 592 -272 3order
FLAG 768 144 5order
SYMBOL ind 80 160 R270
WINDOW 0 32 56 VTop 2
WINDOW 3 5 56 VBottom 2
SYMATTR InstName L1
SYMATTR Value 3.84m
SYMBOL ind 336 160 R270
WINDOW 0 32 56 VTop 2
WINDOW 3 5 56 VBottom 2
SYMATTR InstName L2
SYMATTR Value 3.44m
SYMBOL cap 240 160 R0
SYMATTR InstName C1
SYMATTR Value 1.69µ
SYMBOL cap 496 160 R0
SYMATTR InstName C2
SYMATTR Value 889.68n
SYMBOL ind 592 160 R270
WINDOW 0 32 56 VTop 2
WINDOW 3 5 56 VBottom 2
SYMATTR InstName L3
SYMATTR Value 768µ
SYMBOL res 768 176 R0
SYMATTR InstName R1
SYMATTR Value 50
SYMBOL Misc\\signal 0 176 R0
WINDOW 123 24 132 Left 2
WINDOW 39 0 0 Left 0
SYMATTR InstName V1
SYMATTR Value2 AC 1
SYMBOL ind 96 -256 R270
WINDOW 0 32 56 VTop 2
WINDOW 3 5 56 VBottom 2
SYMATTR InstName L4
SYMATTR Value 2.39m
SYMBOL ind 352 -256 R270
WINDOW 0 32 56 VTop 2
WINDOW 3 5 56 VBottom 2
SYMATTR InstName L5
SYMATTR Value 795µ
SYMBOL cap 256 -256 R0
SYMATTR InstName C3
SYMATTR Value 636.62n
SYMBOL res 592 -240 R0
SYMATTR InstName R2
SYMATTR Value 50
SYMBOL Misc\\signal 16 -240 R0
WINDOW 123 24 132 Left 2
WINDOW 39 0 0 Left 0
SYMATTR InstName V2
SYMATTR Value2 AC 1
TEXT -32 328 Left 2 !.ac dec 10000000 1 500k
TEXT -16 -88 Left 2 ;.ac dec 10000000 1 500k
