Version 4
SHEET 1 1052 680
WIRE 112 -272 16 -272
WIRE 272 -272 192 -272
WIRE 368 -272 272 -272
WIRE 592 -272 448 -272
WIRE 608 -272 592 -272
WIRE 272 -256 272 -272
WIRE 16 -224 16 -272
WIRE 608 -224 608 -272
WIRE 96 144 0 144
WIRE 256 144 176 144
WIRE 352 144 256 144
WIRE 512 144 432 144
WIRE 608 144 512 144
WIRE 768 144 688 144
WIRE 784 144 768 144
WIRE 256 160 256 144
WIRE 512 160 512 144
WIRE 0 192 0 144
WIRE 784 192 784 144
WIRE -288 480 -384 480
WIRE -128 480 -224 480
WIRE 48 480 -128 480
WIRE 112 480 48 480
WIRE 272 480 192 480
WIRE 368 480 272 480
WIRE 528 480 448 480
WIRE 624 480 528 480
WIRE 800 480 704 480
WIRE 880 480 800 480
WIRE 272 496 272 480
WIRE 528 496 528 480
WIRE -384 528 -384 480
WIRE 800 528 800 480
FLAG 512 224 0
FLAG 256 224 0
FLAG 784 272 0
FLAG 0 272 0
FLAG 272 -192 0
FLAG 608 -144 0
FLAG 16 -144 0
FLAG 592 -272 3order
FLAG 768 144 5order
FLAG 528 560 0
FLAG 272 560 0
FLAG 928 560 0
FLAG 944 480 5order2
FLAG -128 544 0
FLAG 48 544 0
FLAG -384 608 0
FLAG 800 608 0
SYMBOL ind 80 160 R270
WINDOW 0 32 56 VTop 2
WINDOW 3 5 56 VBottom 2
SYMATTR InstName L1
SYMATTR Value 3.84m
SYMBOL ind 336 160 R270
WINDOW 0 32 56 VTop 2
WINDOW 3 5 56 VBottom 2
SYMATTR InstName L2
SYMATTR Value 3.44m
SYMBOL cap 240 160 R0
SYMATTR InstName C1
SYMATTR Value 1.69µ
SYMBOL cap 496 160 R0
SYMATTR InstName C2
SYMATTR Value 889.68n
SYMBOL ind 592 160 R270
WINDOW 0 32 56 VTop 2
WINDOW 3 5 56 VBottom 2
SYMATTR InstName L3
SYMATTR Value 768µ
SYMBOL res 768 176 R0
SYMATTR InstName R1
SYMATTR Value 50
SYMBOL Misc\\signal 0 176 R0
WINDOW 123 24 132 Left 2
WINDOW 39 0 0 Left 0
SYMATTR Value2 AC 1
SYMATTR InstName V1
SYMBOL ind 96 -256 R270
WINDOW 0 32 56 VTop 2
WINDOW 3 5 56 VBottom 2
SYMATTR InstName L4
SYMATTR Value 2.39m
SYMBOL ind 352 -256 R270
WINDOW 0 32 56 VTop 2
WINDOW 3 5 56 VBottom 2
SYMATTR InstName L5
SYMATTR Value 795µ
SYMBOL cap 256 -256 R0
SYMATTR InstName C3
SYMATTR Value 636.62n
SYMBOL res 592 -240 R0
SYMATTR InstName R2
SYMATTR Value 50
SYMBOL Misc\\signal 16 -240 R0
WINDOW 123 24 132 Left 2
WINDOW 39 0 0 Left 0
SYMATTR Value2 AC 1
SYMATTR InstName V2
SYMBOL ind 96 496 R270
WINDOW 0 32 56 VTop 2
WINDOW 3 5 56 VBottom 2
SYMATTR InstName L6
SYMATTR Value 68m
SYMBOL ind 352 496 R270
WINDOW 0 32 56 VTop 2
WINDOW 3 5 56 VBottom 2
SYMATTR InstName L7
SYMATTR Value 68m
SYMBOL cap 256 496 R0
SYMATTR InstName C4
SYMATTR Value 56n
SYMBOL cap 512 496 R0
SYMATTR InstName C5
SYMATTR Value 33n
SYMBOL ind 608 496 R270
WINDOW 0 32 56 VTop 2
WINDOW 3 5 56 VBottom 2
SYMATTR InstName L8
SYMATTR Value 10m
SYMBOL res 784 512 R0
SYMATTR InstName R3
SYMATTR Value 1k
SYMBOL diode -144 480 R0
SYMATTR InstName D1
SYMATTR Value 1N4148
SYMBOL cap 32 480 R0
WINDOW 0 36 17 Left 2
WINDOW 3 35 50 Left 2
SYMATTR InstName C6
SYMATTR Value 56n
SYMBOL Misc\\signal -384 512 R0
WINDOW 123 24 132 Left 2
WINDOW 39 0 0 Left 0
SYMATTR Value2 AC 1
SYMATTR InstName V3
SYMBOL cap 944 464 R90
WINDOW 0 0 32 VBottom 2
WINDOW 3 32 32 VTop 2
SYMATTR InstName C7
SYMATTR Value 1µ
SYMBOL res 912 464 R0
SYMATTR InstName R4
SYMATTR Value 1k
SYMBOL cap -224 464 R90
WINDOW 0 0 32 VBottom 2
WINDOW 3 32 32 VTop 2
SYMATTR InstName C8
SYMATTR Value 10µ
TEXT -32 328 Left 2 ;.ac dec 10000000 1 500k
TEXT -16 -88 Left 2 ;.ac dec 10000000 1 500k
TEXT -32 360 Left 2 !.ac dec 10000000 1 500k
