Version 4
SHEET 1 1040 680
WIRE 208 16 208 -64
WIRE 208 16 -32 16
WIRE 448 16 208 16
WIRE 208 128 208 96
WIRE 208 128 96 128
WIRE 288 128 208 128
WIRE 320 128 288 128
WIRE -32 176 -32 96
WIRE -32 176 -80 176
WIRE 32 176 -32 176
WIRE 448 176 448 96
WIRE 448 176 384 176
WIRE 496 176 448 176
WIRE -32 224 -32 176
WIRE 208 224 96 224
WIRE 320 224 208 224
WIRE 448 240 448 176
WIRE 208 272 208 224
WIRE -32 368 -32 304
WIRE 208 368 208 352
WIRE 288 368 208 368
WIRE 448 368 448 320
WIRE 288 384 288 368
WIRE 208 480 208 448
WIRE 288 480 288 448
FLAG 288 64 MixOut
FLAG 448 368 0
FLAG -32 368 0
FLAG 784 416 0
FLAG 784 240 0
FLAG 784 96 0
FLAG 784 336 vcc
FLAG 784 160 sig1
FLAG -144 176 sig1
FLAG 784 16 sig2
FLAG 560 176 sig2
FLAG 208 -64 vcc
FLAG 208 480 0
FLAG 288 480 0
SYMBOL npn 32 128 R0
SYMATTR InstName Q1
SYMATTR Value BC337-25
SYMBOL npn 384 128 M0
SYMATTR InstName Q2
SYMATTR Value BC337-25
SYMBOL res 192 0 R0
SYMATTR InstName R1
SYMATTR Value 3k
SYMBOL res -48 0 R0
SYMATTR InstName R3
SYMATTR Value 110k
SYMBOL res -48 208 R0
SYMATTR InstName R4
SYMATTR Value 309k
SYMBOL res 432 0 R0
SYMATTR InstName R5
SYMATTR Value 110k
SYMBOL res 432 224 R0
SYMATTR InstName R6
SYMATTR Value 309k
SYMBOL cap 560 160 R90
WINDOW 0 0 32 VBottom 2
WINDOW 3 32 32 VTop 2
SYMATTR InstName C1
SYMATTR Value 10µ
SYMBOL cap -80 160 R90
WINDOW 0 0 32 VBottom 2
WINDOW 3 32 32 VTop 2
SYMATTR InstName C2
SYMATTR Value 10µ
SYMBOL cap 272 64 R0
SYMATTR InstName C3
SYMATTR Value 47µ
SYMBOL Misc\\signal 784 0 R0
WINDOW 123 0 0 Left 0
WINDOW 39 0 0 Left 0
SYMATTR InstName V1
SYMATTR Value SINE(0 0.2 330030)
SYMBOL Misc\\signal 784 144 R0
WINDOW 123 0 0 Left 0
WINDOW 39 0 0 Left 0
SYMATTR InstName V2
SYMATTR Value SINE(0 0.2 330K)
SYMBOL voltage 784 320 R0
WINDOW 123 0 0 Left 0
WINDOW 39 0 0 Left 0
SYMATTR InstName V3
SYMATTR Value 12
SYMBOL res 192 256 R0
SYMATTR InstName R2
SYMATTR Value 500
SYMBOL res 192 352 R0
SYMATTR InstName R7
SYMATTR Value 3k
SYMBOL cap 272 384 R0
SYMATTR InstName C4
SYMATTR Value 440µ
TEXT -200 504 Left 2 !.tran 0 0.1 0 0.00001
