Version 4
SHEET 1 880 680
WIRE 192 48 192 16
WIRE 192 48 144 48
WIRE 240 48 192 48
WIRE 304 128 240 128
WIRE 400 128 368 128
WIRE 0 176 -32 176
WIRE 144 176 144 128
WIRE 144 176 64 176
WIRE 176 176 144 176
WIRE -240 192 -384 192
WIRE 144 208 144 176
WIRE 144 304 144 288
WIRE 192 304 144 304
WIRE 240 304 192 304
WIRE 192 336 192 304
FLAG 192 336 0
FLAG 192 16 VCC
FLAG 400 128 Amp1-Out-2
FLAG -32 176 MixOut
FLAG -400 528 0
FLAG -272 480 0
FLAG -272 400 LO
FLAG -400 448 VA
FLAG 16 448 VCC
FLAG 16 528 0
FLAG -240 192 MixOut
FLAG -384 192 DIFF
FLAG -624 304 0
FLAG -624 224 DIFF
SYMBOL npn 176 128 R0
SYMATTR InstName Q1
SYMATTR Value BC337-25
SYMBOL res 224 32 R0
SYMATTR InstName R1
SYMATTR Value 10k
SYMBOL res 224 208 R0
SYMATTR InstName R2
SYMATTR Value 1k
SYMBOL res 128 32 R0
SYMATTR InstName R3
SYMATTR Value 600k
SYMBOL res 128 192 R0
SYMATTR InstName R4
SYMATTR Value 100k
SYMBOL cap 368 112 R90
WINDOW 0 0 32 VBottom 2
WINDOW 3 32 32 VTop 2
SYMATTR InstName C1
SYMATTR Value 10µF
SYMBOL Misc\\signal -400 432 R0
WINDOW 123 0 0 Left 0
WINDOW 39 0 0 Left 0
SYMATTR InstName V1
SYMATTR Value SINE(0 3 250K)
SYMBOL Misc\\signal -272 384 R0
WINDOW 123 0 0 Left 0
WINDOW 39 0 0 Left 0
SYMATTR InstName V2
SYMATTR Value SINE(0 3 251K)
SYMBOL voltage 16 432 R0
WINDOW 123 0 0 Left 0
WINDOW 39 0 0 Left 0
SYMATTR InstName V3
SYMATTR Value 6
SYMBOL Misc\\signal -624 208 R0
WINDOW 123 0 0 Left 0
WINDOW 39 0 0 Left 0
SYMATTR InstName V4
SYMATTR Value SINE(0 0.3 2K)
SYMBOL cap 64 160 R90
WINDOW 0 0 32 VBottom 2
WINDOW 3 32 32 VTop 2
SYMATTR InstName C2
SYMATTR Value 10µF
TEXT 64 136 Left 2 ;A=19
TEXT -512 632 Left 2 !.tran 0 0.005 0 0.000001
