Version 4
SHEET 1 880 680
WIRE -320 -96 -320 -128
WIRE 144 -32 144 -80
WIRE 144 -32 64 -32
WIRE 224 -32 144 -32
WIRE -320 0 -320 -32
WIRE 224 64 224 48
WIRE 336 64 224 64
WIRE 480 64 400 64
WIRE 528 64 480 64
WIRE 224 80 224 64
WIRE -208 128 -256 128
WIRE -96 128 -144 128
WIRE 64 128 64 48
WIRE 64 128 -16 128
WIRE 160 128 64 128
WIRE -320 144 -320 80
WIRE 64 224 64 128
WIRE 224 224 224 176
WIRE 64 352 64 304
WIRE 224 352 224 304
FLAG 144 -80 vcc
FLAG 224 352 0
FLAG 64 352 0
FLAG 224 64 Collector
FLAG -320 144 0
FLAG -320 -128 Collector
FLAG 528 -144 vcc
FLAG 528 -64 0
FLAG -256 208 0
FLAG 528 64 Out
FLAG 480 144 0
SYMBOL res 48 -48 R0
SYMATTR InstName RB1
SYMATTR Value 309k
SYMBOL res 208 -48 R0
SYMATTR InstName RC1
SYMATTR Value 44k
SYMBOL res 208 208 R0
SYMATTR InstName RE1
SYMATTR Value 1k
SYMBOL res 48 208 R0
SYMATTR InstName RB2
SYMATTR Value 110k
SYMBOL res 0 112 R90
WINDOW 0 0 56 VBottom 2
WINDOW 3 32 56 VTop 2
SYMATTR InstName R1
SYMATTR Value 15k
SYMBOL polcap -336 -96 R0
SYMATTR InstName C2
SYMATTR Value 1µ
SYMBOL res -336 -16 R0
SYMATTR InstName R2
SYMATTR Value 294k
SYMBOL polcap 336 48 M90
WINDOW 0 0 32 VBottom 2
WINDOW 3 32 32 VTop 2
SYMATTR InstName C3
SYMATTR Value 1µ
SYMBOL polcap -208 112 M90
WINDOW 0 0 32 VBottom 2
WINDOW 3 32 32 VTop 2
SYMATTR InstName C4
SYMATTR Value 1µ
SYMBOL voltage 528 -160 R0
WINDOW 123 0 0 Left 0
WINDOW 39 0 0 Left 0
SYMATTR InstName V1
SYMATTR Value 12
SYMBOL voltage -256 112 R0
WINDOW 123 24 124 Left 2
WINDOW 39 0 0 Left 0
SYMATTR InstName V2
SYMATTR Value SINE(0 1 300k)
SYMATTR Value2 AC AC1
SYMBOL res 464 48 R0
SYMATTR InstName R3
SYMATTR Value 10k
SYMBOL npn 160 80 R0
SYMATTR InstName Q1
SYMATTR Value BC337-25
TEXT -256 392 Left 2 !;.tran 0 0.01 0 0.0001
TEXT -280 336 Left 2 !.ac dec 0.001 20 2Meg
