Version 4
SHEET 1 992 1124
WIRE -1920 480 -2048 480
WIRE -1760 480 -1856 480
WIRE -1600 480 -1680 480
WIRE -1552 480 -1600 480
WIRE -1552 560 -1552 480
WIRE -1344 560 -1552 560
WIRE -1072 560 -1264 560
WIRE -1040 560 -1072 560
WIRE -880 560 -976 560
WIRE -736 560 -800 560
WIRE -640 560 -736 560
WIRE -1920 576 -1968 576
WIRE -1760 576 -1856 576
WIRE -1600 576 -1600 480
WIRE -1600 576 -1680 576
WIRE -736 592 -736 560
WIRE -640 592 -640 560
WIRE -1968 640 -1968 576
WIRE -1552 656 -1552 560
WIRE -1472 656 -1552 656
WIRE -1312 656 -1392 656
WIRE -1248 656 -1312 656
WIRE -1104 656 -1168 656
WIRE -1072 656 -1072 560
WIRE -1072 656 -1104 656
WIRE -1040 656 -1072 656
WIRE -736 672 -736 656
WIRE -736 672 -784 672
WIRE -640 672 -736 672
WIRE -2048 688 -2048 480
WIRE -784 704 -784 672
WIRE -1312 736 -1312 656
WIRE -1104 736 -1104 656
FLAG -1968 720 0
FLAG -2048 768 0
FLAG -1552 480 mid
FLAG -1312 800 0
FLAG -1104 800 0
FLAG -1040 656 checkpoint
FLAG -784 704 0
FLAG -640 560 final
SYMBOL res -1664 464 R90
WINDOW 0 0 56 VBottom 2
WINDOW 3 32 56 VTop 2
SYMATTR InstName R9
SYMATTR Value 4.7
SYMBOL res -1664 560 R90
WINDOW 0 0 56 VBottom 2
WINDOW 3 32 56 VTop 2
SYMATTR InstName R10
SYMATTR Value 4.7
SYMBOL cap -1856 464 R90
WINDOW 0 0 32 VBottom 2
WINDOW 3 32 32 VTop 2
SYMATTR InstName C7
SYMATTR Value 0.1µ
SYMBOL cap -1856 560 R90
WINDOW 0 0 32 VBottom 2
WINDOW 3 32 32 VTop 2
SYMATTR InstName C8
SYMATTR Value 0.1µ
SYMBOL Misc\\signal -1968 624 R0
WINDOW 123 0 0 Left 0
WINDOW 39 0 0 Left 0
SYMATTR InstName V5
SYMATTR Value SINE(0 8 258k)
SYMBOL Misc\\signal -2048 672 R0
WINDOW 123 0 0 Left 0
WINDOW 39 0 0 Left 0
SYMATTR InstName V6
SYMATTR Value SINE(0 12 260k)
SYMBOL cap -1328 736 R0
SYMATTR InstName C9
SYMATTR Value 100p
SYMBOL cap -1120 736 R0
SYMATTR InstName C10
SYMATTR Value 100p
SYMBOL res -1376 640 R90
WINDOW 0 0 56 VBottom 2
WINDOW 3 32 56 VTop 2
SYMATTR InstName R11
SYMATTR Value 7.9k
SYMBOL res -1152 640 R90
WINDOW 0 0 56 VBottom 2
WINDOW 3 32 56 VTop 2
SYMATTR InstName R12
SYMATTR Value 7.9k
SYMBOL diode -1040 576 R270
WINDOW 0 32 32 VTop 2
WINDOW 3 0 32 VBottom 2
SYMATTR InstName D2
SYMBOL cap -752 592 R0
SYMATTR InstName C11
SYMATTR Value 220p
SYMBOL res -656 576 R0
SYMATTR InstName R13
SYMATTR Value 450k
SYMBOL res -1248 544 R90
WINDOW 0 0 56 VBottom 2
WINDOW 3 32 56 VTop 2
SYMATTR InstName R2
SYMATTR Value 5.9K
SYMBOL res -784 544 R90
WINDOW 0 0 56 VBottom 2
WINDOW 3 32 56 VTop 2
SYMATTR InstName R1
SYMATTR Value 100K
TEXT -2160 848 Left 2 !.tran 0 0.005 0 0.0001
