Version 4
SHEET 1 4256 820
WIRE 144 32 112 32
WIRE 256 32 224 32
WIRE 256 80 256 32
WIRE 2960 80 2960 48
WIRE 2960 80 2912 80
WIRE 3008 80 2960 80
WIRE 112 128 112 32
WIRE 832 128 832 96
WIRE 832 128 784 128
WIRE 880 128 832 128
WIRE 3072 160 3008 160
WIRE 3168 160 3136 160
WIRE -224 176 -304 176
WIRE -80 176 -160 176
WIRE 64 176 -80 176
WIRE 64 208 0 208
WIRE 944 208 880 208
WIRE 1040 208 1008 208
WIRE 1424 208 1360 208
WIRE 1504 208 1424 208
WIRE 1568 208 1504 208
WIRE 1728 208 1648 208
WIRE 1824 208 1728 208
WIRE 1984 208 1904 208
WIRE 2080 208 1984 208
WIRE 2240 208 2160 208
WIRE 2256 208 2240 208
WIRE 2352 208 2256 208
WIRE 2784 208 2672 208
WIRE 2848 208 2832 208
WIRE 2912 208 2912 160
WIRE 2912 208 2848 208
WIRE 2944 208 2912 208
WIRE 1728 224 1728 208
WIRE 1984 224 1984 208
WIRE 112 256 112 224
WIRE 176 256 112 256
WIRE 304 256 240 256
WIRE 640 256 592 256
WIRE 784 256 784 208
WIRE 784 256 704 256
WIRE 816 256 784 256
WIRE 2256 256 2256 208
WIRE -208 288 -304 288
WIRE 0 288 0 208
WIRE 0 288 -144 288
WIRE 112 288 112 256
WIRE 0 304 0 288
WIRE 3008 304 3008 256
WIRE 880 352 880 304
WIRE -80 384 -80 256
WIRE -48 384 -80 384
WIRE 0 384 -48 384
WIRE 2912 400 2912 208
WIRE 3008 400 3008 384
WIRE 3104 400 3008 400
WIRE -48 416 -48 384
WIRE 3008 416 3008 400
WIRE 3104 432 3104 400
WIRE 784 448 784 256
WIRE 880 448 880 432
WIRE 976 448 880 448
WIRE 880 464 880 448
WIRE 976 480 976 448
WIRE 2912 528 2912 480
WIRE 3008 528 3008 496
WIRE 3008 528 2912 528
WIRE 3104 528 3104 496
WIRE 3104 528 3008 528
WIRE 3008 560 3008 528
WIRE 784 576 784 528
WIRE 880 576 880 544
WIRE 880 576 784 576
WIRE 976 576 976 544
WIRE 976 576 880 576
WIRE 880 608 880 576
FLAG 256 80 0
FLAG 832 -304 0
FLAG 1136 -304 0
FLAG 1136 -384 LO
FLAG -304 176 LO
FLAG -304 288 VA
FLAG 832 -384 VA
FLAG 1600 -400 VCC
FLAG 112 368 VCC
FLAG 1600 -320 0
FLAG 304 256 MixOut
FLAG 2352 208 FilterOut
FLAG 832 96 VCC
FLAG 1040 208 Amp1-Out
FLAG 592 256 MixOut
FLAG 1360 208 Amp1-Out
FLAG 2960 48 VCC
FLAG 3168 160 Amp2-Out
FLAG 2672 208 FilterOut
FLAG 1984 288 0
FLAG 1728 288 0
FLAG 2256 336 0
FLAG 2240 208 5order
FLAG 1424 272 0
FLAG 3008 560 0
FLAG -48 416 0
FLAG 1504 272 0
FLAG 880 608 0
SYMBOL DUALGATE\\xdgnmos 64 128 R0
SYMATTR InstName U1
SYMBOL res 240 16 R90
WINDOW 0 0 56 VBottom 2
WINDOW 3 32 56 VTop 2
SYMATTR InstName R1
SYMATTR Value 100K
SYMBOL res 96 272 R0
SYMATTR InstName R2
SYMATTR Value 4.7K
SYMBOL cap 240 240 R90
WINDOW 0 0 32 VBottom 2
WINDOW 3 32 32 VTop 2
SYMATTR InstName C1
SYMATTR Value 1µ
SYMBOL Misc\\signal 832 -400 R0
WINDOW 123 0 0 Left 0
WINDOW 39 0 0 Left 0
SYMATTR InstName V1
SYMATTR Value SINE(0 0.05 270K)
SYMBOL Misc\\signal 1136 -400 R0
WINDOW 123 0 0 Left 0
WINDOW 39 0 0 Left 0
SYMATTR InstName V2
SYMATTR Value SINE (0 0.1 270.3K)
SYMBOL voltage 1600 -416 R0
WINDOW 123 0 0 Left 0
WINDOW 39 0 0 Left 0
SYMATTR InstName V3
SYMATTR Value 12
SYMBOL res -16 288 R0
SYMATTR InstName R4
SYMATTR Value 1k
SYMBOL res -96 160 R0
SYMATTR InstName R6
SYMATTR Value 1k
SYMBOL npn 816 208 R0
SYMATTR InstName Q1
SYMATTR Value BC337-25
SYMBOL res 864 112 R0
SYMATTR InstName RC1
SYMATTR Value 4.7K
SYMBOL res 768 112 R0
SYMATTR InstName RB1
SYMATTR Value 220K
SYMBOL cap 1008 192 R90
WINDOW 0 0 32 VBottom 2
WINDOW 3 32 32 VTop 2
SYMATTR InstName Cc
SYMATTR Value 47µ
SYMBOL npn 2944 160 R0
SYMATTR InstName Q2
SYMATTR Value BC337-25
SYMBOL res 2992 64 R0
SYMATTR InstName R18
SYMATTR Value 3K
SYMBOL res 2896 64 R0
SYMATTR InstName R20
SYMATTR Value 220K
SYMBOL cap 3136 144 R90
WINDOW 0 0 32 VBottom 2
WINDOW 3 32 32 VTop 2
SYMATTR InstName C5
SYMATTR Value 47µ
SYMBOL ind 1552 224 R270
WINDOW 0 32 56 VTop 2
WINDOW 3 5 56 VBottom 2
SYMATTR InstName L3
SYMATTR Value 86m
SYMBOL ind 1808 224 R270
WINDOW 0 32 56 VTop 2
WINDOW 3 5 56 VBottom 2
SYMATTR InstName L4
SYMATTR Value 68m
SYMBOL cap 1712 224 R0
SYMATTR InstName C9
SYMATTR Value 3.9n
SYMBOL cap 1968 224 R0
SYMATTR InstName C10
SYMATTR Value 1.5n
SYMBOL ind 2064 224 R270
WINDOW 0 32 56 VTop 2
WINDOW 3 5 56 VBottom 2
SYMATTR InstName L5
SYMATTR Value 15m
SYMBOL res 2240 240 R0
SYMATTR InstName R23
SYMATTR Value 5K
SYMBOL diode 1408 208 R0
SYMATTR InstName D2
SYMATTR Value 1N4148
SYMBOL cap 2848 192 R90
WINDOW 0 0 32 VBottom 2
WINDOW 3 32 32 VTop 2
SYMATTR InstName C11
SYMATTR Value 47µ
SYMBOL res 2992 400 R0
SYMATTR InstName R24
SYMATTR Value 1.85K
SYMBOL res 2896 384 R0
SYMATTR InstName R25
SYMATTR Value 110K
SYMBOL cap 3088 432 R0
SYMATTR InstName C14
SYMATTR Value 440µ
SYMBOL cap -144 272 R90
WINDOW 0 0 32 VBottom 2
WINDOW 3 32 32 VTop 2
SYMATTR InstName C15
SYMATTR Value 1µ
SYMBOL cap -160 160 R90
WINDOW 0 0 32 VBottom 2
WINDOW 3 32 32 VTop 2
SYMATTR InstName C16
SYMATTR Value 1µ
SYMBOL cap 1488 208 R0
WINDOW 0 36 17 Left 2
WINDOW 3 35 50 Left 2
SYMATTR InstName C17
SYMATTR Value 39n
SYMBOL res 2992 288 R0
SYMATTR InstName R3
SYMATTR Value 150
SYMBOL cap 704 240 R90
WINDOW 0 0 32 VBottom 2
WINDOW 3 32 32 VTop 2
SYMATTR InstName Cb
SYMATTR Value 47µ
SYMBOL res 864 448 R0
SYMATTR InstName RE2
SYMATTR Value 1.85K
SYMBOL res 768 432 R0
SYMATTR InstName RB2
SYMATTR Value 30K
SYMBOL cap 960 480 R0
SYMATTR InstName Ce
SYMATTR Value 440µ
SYMBOL res 864 336 R0
SYMATTR InstName RE1
SYMATTR Value 42
TEXT -72 496 Left 2 !;.ac dec 1000 270K 300K
TEXT 904 104 Left 2 ;A = 43
TEXT 3000 56 Left 2 ;A = 42 (suspected)
TEXT 1136 -232 Left 2 ;.ac dec 1000 270K 300K
TEXT -344 632 Left 2 !.tran 0 1 0 0.00001
