Version 4
SHEET 1 2208 712
WIRE 1520 -784 1440 -784
WIRE 1680 -784 1600 -784
WIRE 576 -736 496 -736
WIRE 736 -736 656 -736
WIRE 1440 -624 1440 -784
WIRE 1472 -624 1440 -624
WIRE 1536 -624 1472 -624
WIRE 1680 -608 1680 -784
WIRE 1680 -608 1600 -608
WIRE 1424 -592 1424 -624
WIRE 1536 -592 1424 -592
WIRE 496 -576 496 -736
WIRE 528 -576 496 -576
WIRE 592 -576 528 -576
WIRE 736 -560 736 -736
WIRE 736 -560 656 -560
WIRE 480 -544 480 -576
WIRE 592 -544 480 -544
WIRE 1472 -544 1472 -624
WIRE 528 -496 528 -576
WIRE 528 -288 528 -320
WIRE 528 -288 480 -288
WIRE 576 -288 528 -288
WIRE 1488 -288 1488 -320
WIRE 1488 -288 1440 -288
WIRE 1536 -288 1488 -288
WIRE 640 -208 576 -208
WIRE 736 -208 704 -208
WIRE 1600 -208 1536 -208
WIRE 1696 -208 1664 -208
WIRE 480 -160 480 -208
WIRE 480 -160 400 -160
WIRE 512 -160 480 -160
WIRE 1440 -160 1440 -208
WIRE 1440 -160 1360 -160
WIRE 1472 -160 1440 -160
WIRE 480 -128 480 -160
WIRE 1440 -128 1440 -160
WIRE 480 -32 480 -48
WIRE 528 -32 480 -32
WIRE 576 -32 528 -32
WIRE 1440 -32 1440 -48
WIRE 1488 -32 1440 -32
WIRE 1536 -32 1488 -32
WIRE 528 0 528 -32
WIRE 1488 0 1488 -32
WIRE 144 32 112 32
WIRE 256 32 224 32
WIRE 256 80 256 32
WIRE 112 128 112 32
WIRE -16 176 -80 176
WIRE 64 176 -16 176
WIRE 1856 192 1840 192
WIRE 2000 192 1936 192
WIRE 64 208 0 208
WIRE 112 256 112 224
WIRE 176 256 112 256
WIRE 304 256 240 256
WIRE 720 272 656 272
WIRE 912 272 720 272
WIRE 960 272 912 272
WIRE 1072 272 1040 272
WIRE 1168 272 1072 272
WIRE 1216 272 1168 272
WIRE 1360 272 1280 272
WIRE 112 288 112 256
WIRE 1168 288 1168 272
WIRE 1744 288 1696 288
WIRE 1840 288 1840 192
WIRE 1840 288 1824 288
WIRE 1872 288 1840 288
WIRE 2000 304 2000 192
WIRE 2000 304 1936 304
WIRE 2048 304 2000 304
WIRE 2176 304 2112 304
WIRE 1872 320 1824 320
WIRE 2176 368 2176 304
WIRE 720 384 720 336
WIRE 912 384 912 336
WIRE 912 384 720 384
WIRE 1072 384 1072 336
WIRE 1072 384 912 384
WIRE 1168 384 1168 368
WIRE 1168 384 1072 384
WIRE 1824 416 1824 320
WIRE 912 432 912 384
FLAG 256 80 0
FLAG -496 592 0
FLAG -368 544 0
FLAG -368 464 LO
FLAG 0 208 LO
FLAG -16 176 VA
FLAG -496 512 VA
FLAG 528 -416 0
FLAG -80 512 VCC
FLAG 112 368 VCC
FLAG 80 512 POS
FLAG 624 -592 POS
FLAG 624 -528 NEG
FLAG 224 592 NEG
FLAG -80 592 0
FLAG 80 592 0
FLAG 224 512 0
FLAG 736 -560 0
FLAG -80 256 0
FLAG 0 288 0
FLAG 912 432 0
FLAG 2176 368 final
FLAG 304 256 MixOut
FLAG 1360 272 FilterOut
FLAG 1472 -464 0
FLAG 1568 -640 POS
FLAG 1568 -576 NEG
FLAG 1824 416 0
FLAG 1904 272 POS
FLAG 1904 336 NEG
FLAG 1696 288 0
FLAG 528 0 0
FLAG 528 -320 VCC
FLAG 736 -208 Amp1-Out
FLAG 400 -160 MixOut
FLAG 400 -576 0
FLAG 656 272 Amp1-Out
FLAG 1344 -624 0
FLAG 1680 -608 0
FLAG 1488 0 0
FLAG 1488 -320 VCC
FLAG 1696 -208 Amp2-Out
FLAG 1360 -160 FilterOut
SYMBOL DUALGATE\\xdgnmos 64 128 R0
SYMATTR InstName U1
SYMBOL res 240 16 R90
WINDOW 0 0 56 VBottom 2
WINDOW 3 32 56 VTop 2
SYMATTR InstName R1
SYMATTR Value 110K
SYMBOL res 96 272 R0
SYMATTR InstName R2
SYMATTR Value 4.7K
SYMBOL cap 240 240 R90
WINDOW 0 0 32 VBottom 2
WINDOW 3 32 32 VTop 2
SYMATTR InstName C1
SYMATTR Value 1µ
SYMBOL res 496 -592 R90
WINDOW 0 0 56 VBottom 2
WINDOW 3 32 56 VTop 2
SYMATTR InstName R3
SYMATTR Value 1k
SYMBOL res 672 -752 R90
WINDOW 0 0 56 VBottom 2
WINDOW 3 32 56 VTop 2
SYMATTR InstName R9
SYMATTR Value 10.9K
SYMBOL res 512 -512 R0
SYMATTR InstName R5
SYMATTR Value 607
SYMBOL Misc\\signal -496 496 R0
WINDOW 123 0 0 Left 0
WINDOW 39 0 0 Left 0
SYMATTR InstName V1
SYMATTR Value SINE(0 3 250K)
SYMBOL Misc\\signal -368 448 R0
WINDOW 123 0 0 Left 0
WINDOW 39 0 0 Left 0
SYMATTR InstName V2
SYMATTR Value SINE(0 3 251K)
SYMBOL voltage -80 496 R0
WINDOW 123 0 0 Left 0
WINDOW 39 0 0 Left 0
SYMATTR InstName V3
SYMATTR Value 6
SYMBOL voltage 80 496 R0
WINDOW 123 0 0 Left 0
WINDOW 39 0 0 Left 0
SYMATTR InstName V4
SYMATTR Value 12
SYMBOL voltage 224 496 R0
WINDOW 123 0 0 Left 0
WINDOW 39 0 0 Left 0
SYMATTR InstName V5
SYMATTR Value 12
SYMBOL res -16 192 R0
SYMATTR InstName R4
SYMATTR Value 50
SYMBOL res -96 160 R0
SYMATTR InstName R6
SYMATTR Value 50
SYMBOL OpAmps\\OP27 624 -624 R0
SYMATTR InstName U3
SYMBOL diode 704 272 R0
SYMATTR InstName D1
SYMBOL res 1056 256 R90
WINDOW 0 0 56 VBottom 2
WINDOW 3 32 56 VTop 2
SYMATTR InstName R7
SYMATTR Value 1000k
SYMBOL cap 1056 272 R0
SYMATTR InstName C3
SYMATTR Value 220p
SYMBOL cap 896 272 R0
SYMATTR InstName C2
SYMATTR Value 30p
SYMBOL res 1440 -640 R90
WINDOW 0 0 56 VBottom 2
WINDOW 3 32 56 VTop 2
SYMATTR InstName R8
SYMATTR Value 1k
SYMBOL res 1616 -800 R90
WINDOW 0 0 56 VBottom 2
WINDOW 3 32 56 VTop 2
SYMATTR InstName R10
SYMATTR Value 10.9K
SYMBOL res 1456 -560 R0
SYMATTR InstName R11
SYMATTR Value 607
SYMBOL OpAmps\\OP27 1568 -672 R0
SYMATTR InstName U2
SYMBOL OpAmps\\OP27 1904 240 R0
SYMATTR InstName U4
SYMBOL res 1840 272 R90
WINDOW 0 0 56 VBottom 2
WINDOW 3 32 56 VTop 2
SYMATTR InstName R12
SYMATTR Value 1k
SYMBOL res 1952 176 R90
WINDOW 0 0 56 VBottom 2
WINDOW 3 32 56 VTop 2
SYMATTR InstName R13
SYMATTR Value 1k
SYMBOL cap 2112 288 R90
WINDOW 0 0 32 VBottom 2
WINDOW 3 32 32 VTop 2
SYMATTR InstName C4
SYMATTR Value 1µ
SYMBOL npn 512 -208 R0
SYMATTR InstName Q1
SYMATTR Value BC337-25
SYMBOL res 560 -304 R0
SYMATTR InstName R14
SYMATTR Value 22k
SYMBOL res 560 -128 R0
SYMATTR InstName R15
SYMATTR Value 1k
SYMBOL res 464 -304 R0
SYMATTR InstName R16
SYMATTR Value 33000k
SYMBOL res 464 -144 R0
SYMATTR InstName R17
SYMATTR Value 10000k
SYMBOL cap 704 -224 R90
WINDOW 0 0 32 VBottom 2
WINDOW 3 32 32 VTop 2
SYMATTR InstName C6
SYMATTR Value 1µF
SYMBOL npn 1472 -208 R0
SYMATTR InstName Q2
SYMATTR Value BC337-25
SYMBOL res 1520 -304 R0
SYMATTR InstName R18
SYMATTR Value 300k
SYMBOL res 1520 -128 R0
SYMATTR InstName R19
SYMATTR Value 20k
SYMBOL res 1424 -304 R0
SYMATTR InstName R20
SYMATTR Value 33000k
SYMBOL res 1424 -144 R0
SYMATTR InstName R21
SYMATTR Value 80000k
SYMBOL cap 1664 -224 R90
WINDOW 0 0 32 VBottom 2
WINDOW 3 32 32 VTop 2
SYMATTR InstName C5
SYMATTR Value 1µF
SYMBOL cap 1280 256 R90
WINDOW 0 0 32 VBottom 2
WINDOW 3 32 32 VTop 2
SYMATTR InstName C7
SYMATTR Value 1µF
TEXT -608 696 Left 2 !.tran 0 0.005 0 0.000001
TEXT 400 -200 Left 2 ;A=19
TEXT 1360 -200 Left 2 ;A=19
