Version 4
SHEET 1 880 712
WIRE 144 32 112 32
WIRE 256 32 224 32
WIRE 256 80 256 32
WIRE 480 96 400 96
WIRE 640 96 560 96
WIRE 112 128 112 32
WIRE -16 176 -80 176
WIRE 64 176 -16 176
WIRE 64 208 0 208
WIRE 112 256 112 224
WIRE 176 256 112 256
WIRE 304 256 240 256
WIRE 400 256 400 96
WIRE 432 256 400 256
WIRE 496 256 432 256
WIRE 640 272 640 96
WIRE 640 272 560 272
WIRE 112 288 112 256
WIRE 384 288 384 256
WIRE 496 288 384 288
WIRE 432 336 432 256
FLAG 256 80 0
FLAG -496 592 0
FLAG -368 544 0
FLAG -368 464 LO
FLAG 0 208 LO
FLAG -16 176 VA
FLAG -496 512 VA
FLAG 432 416 0
FLAG -80 512 VCC
FLAG 112 368 VCC
FLAG 80 512 POS
FLAG 528 240 POS
FLAG 528 304 NEG
FLAG 224 592 NEG
FLAG -80 592 0
FLAG 80 592 0
FLAG 224 512 0
FLAG 640 272 out
FLAG -80 256 0
FLAG 0 288 0
SYMBOL DUALGATE\\xdgnmos 64 128 R0
SYMATTR InstName U1
SYMBOL res 240 16 R90
WINDOW 0 0 56 VBottom 2
WINDOW 3 32 56 VTop 2
SYMATTR InstName R1
SYMATTR Value 110K
SYMBOL res 96 272 R0
SYMATTR InstName R2
SYMATTR Value 4.7K
SYMBOL cap 240 240 R90
WINDOW 0 0 32 VBottom 2
WINDOW 3 32 32 VTop 2
SYMATTR InstName C1
SYMATTR Value 1µ
SYMBOL res 400 240 R90
WINDOW 0 0 56 VBottom 2
WINDOW 3 32 56 VTop 2
SYMATTR InstName R3
SYMATTR Value 1k
SYMBOL res 576 80 R90
WINDOW 0 0 56 VBottom 2
WINDOW 3 32 56 VTop 2
SYMATTR InstName R9
SYMATTR Value 30.9K
SYMBOL res 416 320 R0
SYMATTR InstName R5
SYMATTR Value 607
SYMBOL Misc\\signal -496 496 R0
WINDOW 123 0 0 Left 0
WINDOW 39 0 0 Left 0
SYMATTR InstName V1
SYMATTR Value SINE(0 3 250K)
SYMBOL Misc\\signal -368 448 R0
WINDOW 123 0 0 Left 0
WINDOW 39 0 0 Left 0
SYMATTR InstName V2
SYMATTR Value SINE(0 2 251K)
SYMBOL voltage -80 496 R0
WINDOW 123 0 0 Left 0
WINDOW 39 0 0 Left 0
SYMATTR InstName V3
SYMATTR Value 6
SYMBOL voltage 80 496 R0
WINDOW 123 0 0 Left 0
WINDOW 39 0 0 Left 0
SYMATTR InstName V4
SYMATTR Value 12
SYMBOL voltage 224 496 R0
WINDOW 123 0 0 Left 0
WINDOW 39 0 0 Left 0
SYMATTR InstName V5
SYMATTR Value 12
SYMBOL res -16 192 R0
SYMATTR InstName R4
SYMATTR Value 50
SYMBOL res -96 160 R0
SYMATTR InstName R6
SYMATTR Value 50
SYMBOL OpAmps\\OP27 528 208 R0
SYMATTR InstName U3
TEXT -608 696 Left 2 !.tran 0 0.02 0 0.000001
