Version 4
SHEET 1 4256 820
WIRE 3008 -1088 2928 -1088
WIRE 3168 -1088 3088 -1088
WIRE 3456 -1072 3376 -1072
WIRE 3616 -1072 3536 -1072
WIRE 3904 -1072 3888 -1072
WIRE 4048 -1072 3984 -1072
WIRE 3792 -976 3744 -976
WIRE 3888 -976 3888 -1072
WIRE 3888 -976 3872 -976
WIRE 3920 -976 3888 -976
WIRE 4048 -960 4048 -1072
WIRE 4048 -960 3984 -960
WIRE 4096 -960 4048 -960
WIRE 4224 -960 4160 -960
WIRE 3920 -944 3872 -944
WIRE 2928 -928 2928 -1088
WIRE 2960 -928 2928 -928
WIRE 3024 -928 2960 -928
WIRE 3168 -912 3168 -1088
WIRE 3168 -912 3088 -912
WIRE 3376 -912 3376 -1072
WIRE 3408 -912 3376 -912
WIRE 3472 -912 3408 -912
WIRE 2912 -896 2912 -928
WIRE 3024 -896 2912 -896
WIRE 3616 -896 3616 -1072
WIRE 3616 -896 3536 -896
WIRE 4224 -896 4224 -960
WIRE 3360 -880 3360 -912
WIRE 3472 -880 3360 -880
WIRE 2960 -848 2960 -928
WIRE 3872 -848 3872 -944
WIRE 3408 -832 3408 -912
WIRE 3232 -544 3168 -544
WIRE 3424 -544 3232 -544
WIRE 3472 -544 3424 -544
WIRE 3584 -544 3552 -544
WIRE 3680 -544 3584 -544
WIRE 3728 -544 3680 -544
WIRE 3872 -544 3792 -544
WIRE 3680 -528 3680 -544
WIRE 3232 -432 3232 -480
WIRE 3424 -432 3424 -480
WIRE 3424 -432 3232 -432
WIRE 3584 -432 3584 -480
WIRE 3584 -432 3424 -432
WIRE 3680 -432 3680 -448
WIRE 3680 -432 3584 -432
WIRE 3424 -384 3424 -432
WIRE 3184 -256 3072 -256
WIRE 3280 -256 3184 -256
WIRE 3440 -256 3360 -256
WIRE 3536 -256 3440 -256
WIRE 3760 -256 3616 -256
WIRE 3776 -256 3760 -256
WIRE 3856 -256 3776 -256
WIRE 4032 -256 3920 -256
WIRE 3440 -240 3440 -256
WIRE 3776 -208 3776 -256
WIRE 2240 -64 2240 -96
WIRE 2240 -64 2192 -64
WIRE 2288 -64 2240 -64
WIRE 528 -16 528 -48
WIRE 528 -16 480 -16
WIRE 576 -16 528 -16
WIRE 2352 16 2288 16
WIRE 2448 16 2416 16
WIRE 144 32 112 32
WIRE 256 32 224 32
WIRE 640 64 576 64
WIRE 736 64 704 64
WIRE 2064 64 1952 64
WIRE 2128 64 2112 64
WIRE 2192 64 2192 16
WIRE 2192 64 2128 64
WIRE 2224 64 2192 64
WIRE 256 80 256 32
WIRE 480 112 480 64
WIRE 480 112 400 112
WIRE 512 112 480 112
WIRE 112 128 112 32
WIRE 2192 160 2192 64
WIRE 2288 160 2288 112
WIRE 2384 160 2288 160
WIRE -224 176 -304 176
WIRE -80 176 -160 176
WIRE 64 176 -80 176
WIRE 912 176 848 176
WIRE 992 176 912 176
WIRE 1056 176 992 176
WIRE 1216 176 1136 176
WIRE 1312 176 1216 176
WIRE 1472 176 1392 176
WIRE 1568 176 1472 176
WIRE 1728 176 1648 176
WIRE 1744 176 1728 176
WIRE 1840 176 1744 176
WIRE 2288 176 2288 160
WIRE 1216 192 1216 176
WIRE 1472 192 1472 176
WIRE 2384 192 2384 160
WIRE 64 208 0 208
WIRE 480 208 480 112
WIRE 576 208 576 160
WIRE 672 208 576 208
WIRE 576 224 576 208
WIRE 1744 224 1744 176
WIRE 672 240 672 208
WIRE 112 256 112 224
WIRE 176 256 112 256
WIRE 304 256 240 256
WIRE -208 288 -304 288
WIRE 0 288 0 208
WIRE 0 288 -144 288
WIRE 112 288 112 256
WIRE 2192 288 2192 240
WIRE 2288 288 2288 256
WIRE 2288 288 2192 288
WIRE 2384 288 2384 256
WIRE 2384 288 2288 288
WIRE 0 304 0 288
WIRE 2288 320 2288 288
WIRE 480 336 480 288
WIRE 576 336 576 304
WIRE 576 336 480 336
WIRE 672 336 672 304
WIRE 672 336 576 336
WIRE 576 368 576 336
WIRE -80 384 -80 256
WIRE -48 384 -80 384
WIRE 0 384 -48 384
WIRE -48 416 -48 384
FLAG 256 80 0
FLAG 832 -304 0
FLAG 1136 -304 0
FLAG 1136 -384 LO
FLAG -304 176 LO
FLAG -304 288 VA
FLAG 832 -384 VA
FLAG 2960 -768 0
FLAG 1600 -400 VCC
FLAG 112 368 VCC
FLAG 3056 -944 POS
FLAG 3056 -880 NEG
FLAG 1600 -320 0
FLAG 3168 -912 0
FLAG 3424 -384 0
FLAG 4224 -896 final
FLAG 304 256 MixOut
FLAG 1840 176 FilterOut
FLAG 3408 -752 0
FLAG 3504 -928 POS
FLAG 3504 -864 NEG
FLAG 3872 -848 0
FLAG 3952 -992 POS
FLAG 3952 -928 NEG
FLAG 3744 -976 0
FLAG 576 368 0
FLAG 528 -48 VCC
FLAG 736 64 Amp1-Out
FLAG 400 112 MixOut
FLAG 2832 -928 0
FLAG 848 176 Amp1-Out
FLAG 3280 -912 0
FLAG 3616 -896 0
FLAG 2240 -96 VCC
FLAG 2448 16 Amp2-Out
FLAG 1952 64 FilterOut
FLAG 3440 -176 0
FLAG 3776 -128 0
FLAG 3760 -256 3order
FLAG 1472 256 0
FLAG 1216 256 0
FLAG 1744 304 0
FLAG 1728 176 5order
FLAG 3184 -192 0
FLAG 912 240 0
FLAG 2288 320 0
FLAG -48 416 0
FLAG 992 240 0
SYMBOL DUALGATE\\xdgnmos 64 128 R0
SYMATTR InstName U1
SYMBOL res 240 16 R90
WINDOW 0 0 56 VBottom 2
WINDOW 3 32 56 VTop 2
SYMATTR InstName R1
SYMATTR Value 100K
SYMBOL res 96 272 R0
SYMATTR InstName R2
SYMATTR Value 4.7K
SYMBOL cap 240 240 R90
WINDOW 0 0 32 VBottom 2
WINDOW 3 32 32 VTop 2
SYMATTR InstName C1
SYMATTR Value 1µ
SYMBOL res 2928 -944 R90
WINDOW 0 0 56 VBottom 2
WINDOW 3 32 56 VTop 2
SYMATTR InstName R3
SYMATTR Value 1k
SYMBOL res 3104 -1104 R90
WINDOW 0 0 56 VBottom 2
WINDOW 3 32 56 VTop 2
SYMATTR InstName R9
SYMATTR Value 10.9K
SYMBOL res 2944 -864 R0
SYMATTR InstName R5
SYMATTR Value 607
SYMBOL Misc\\signal 832 -400 R0
WINDOW 123 0 0 Left 0
WINDOW 39 0 0 Left 0
SYMATTR InstName V1
SYMATTR Value SINE(0 1 270K)
SYMBOL Misc\\signal 1136 -400 R0
WINDOW 123 0 0 Left 0
WINDOW 39 0 0 Left 0
SYMATTR InstName V2
SYMATTR Value SINE(0 1 272K)
SYMBOL voltage 1600 -416 R0
WINDOW 123 0 0 Left 0
WINDOW 39 0 0 Left 0
SYMATTR InstName V3
SYMATTR Value 6
SYMBOL res -16 288 R0
SYMATTR InstName R4
SYMATTR Value 1k
SYMBOL res -96 160 R0
SYMATTR InstName R6
SYMATTR Value 1k
SYMBOL OpAmps\\OP27 3056 -976 R0
SYMATTR InstName U3
SYMBOL diode 3216 -544 R0
SYMATTR InstName D1
SYMBOL res 3568 -560 R90
WINDOW 0 0 56 VBottom 2
WINDOW 3 32 56 VTop 2
SYMATTR InstName R7
SYMATTR Value 1000k
SYMBOL cap 3568 -544 R0
SYMATTR InstName C3
SYMATTR Value 220p
SYMBOL cap 3408 -544 R0
SYMATTR InstName C2
SYMATTR Value 30p
SYMBOL res 3376 -928 R90
WINDOW 0 0 56 VBottom 2
WINDOW 3 32 56 VTop 2
SYMATTR InstName R8
SYMATTR Value 1k
SYMBOL res 3552 -1088 R90
WINDOW 0 0 56 VBottom 2
WINDOW 3 32 56 VTop 2
SYMATTR InstName R10
SYMATTR Value 10.9K
SYMBOL res 3392 -848 R0
SYMATTR InstName R11
SYMATTR Value 607
SYMBOL OpAmps\\OP27 3504 -960 R0
SYMATTR InstName U2
SYMBOL OpAmps\\OP27 3952 -1024 R0
SYMATTR InstName U4
SYMBOL res 3888 -992 R90
WINDOW 0 0 56 VBottom 2
WINDOW 3 32 56 VTop 2
SYMATTR InstName R12
SYMATTR Value 1k
SYMBOL res 4000 -1088 R90
WINDOW 0 0 56 VBottom 2
WINDOW 3 32 56 VTop 2
SYMATTR InstName R13
SYMATTR Value 1k
SYMBOL cap 4160 -976 R90
WINDOW 0 0 32 VBottom 2
WINDOW 3 32 32 VTop 2
SYMATTR InstName C4
SYMATTR Value 1µ
SYMBOL npn 512 64 R0
SYMATTR InstName Q1
SYMATTR Value BC337-25
SYMBOL res 560 -32 R0
SYMATTR InstName R14
SYMATTR Value 4.7K
SYMBOL res 560 208 R0
SYMATTR InstName R15
SYMATTR Value 1k
SYMBOL res 464 -32 R0
SYMATTR InstName R16
SYMATTR Value 309K
SYMBOL res 464 192 R0
SYMATTR InstName R17
SYMATTR Value 110K
SYMBOL cap 704 48 R90
WINDOW 0 0 32 VBottom 2
WINDOW 3 32 32 VTop 2
SYMATTR InstName C6
SYMATTR Value 1µF
SYMBOL npn 2224 16 R0
SYMATTR InstName Q2
SYMATTR Value BC337-25
SYMBOL res 2272 -80 R0
SYMATTR InstName R18
SYMATTR Value 4.7k
SYMBOL res 2176 -80 R0
SYMATTR InstName R20
SYMATTR Value 309K
SYMBOL cap 2416 0 R90
WINDOW 0 0 32 VBottom 2
WINDOW 3 32 32 VTop 2
SYMATTR InstName C5
SYMATTR Value 1µF
SYMBOL cap 3792 -560 R90
WINDOW 0 0 32 VBottom 2
WINDOW 3 32 32 VTop 2
SYMATTR InstName C7
SYMATTR Value 1µF
SYMBOL ind 3264 -240 R270
WINDOW 0 32 56 VTop 2
WINDOW 3 5 56 VBottom 2
SYMATTR InstName L1
SYMATTR Value 2.39m
SYMBOL ind 3520 -240 R270
WINDOW 0 32 56 VTop 2
WINDOW 3 5 56 VBottom 2
SYMATTR InstName L2
SYMATTR Value 795µ
SYMBOL cap 3424 -240 R0
SYMATTR InstName C8
SYMATTR Value 636.62n
SYMBOL res 3760 -224 R0
SYMATTR InstName R22
SYMATTR Value 50
SYMBOL ind 1040 192 R270
WINDOW 0 32 56 VTop 2
WINDOW 3 5 56 VBottom 2
SYMATTR InstName L3
SYMATTR Value 68m
SYMBOL ind 1296 192 R270
WINDOW 0 32 56 VTop 2
WINDOW 3 5 56 VBottom 2
SYMATTR InstName L4
SYMATTR Value 68m
SYMBOL cap 1200 192 R0
SYMATTR InstName C9
SYMATTR Value 56n
SYMBOL cap 1456 192 R0
SYMATTR InstName C10
SYMATTR Value 33n
SYMBOL ind 1552 192 R270
WINDOW 0 32 56 VTop 2
WINDOW 3 5 56 VBottom 2
SYMATTR InstName L5
SYMATTR Value 10m
SYMBOL res 1728 208 R0
SYMATTR InstName R23
SYMATTR Value 1k
SYMBOL diode 896 176 R0
SYMATTR InstName D2
SYMBOL diode 3168 -256 R0
SYMATTR InstName D3
SYMBOL cap 2128 48 R90
WINDOW 0 0 32 VBottom 2
WINDOW 3 32 32 VTop 2
SYMATTR InstName C11
SYMATTR Value 1µF
SYMBOL cap 3920 -272 R90
WINDOW 0 0 32 VBottom 2
WINDOW 3 32 32 VTop 2
SYMATTR InstName C12
SYMATTR Value 1µF
SYMBOL cap 656 240 R0
SYMATTR InstName C13
SYMATTR Value 1µ
SYMBOL res 2272 160 R0
SYMATTR InstName R24
SYMATTR Value 1k
SYMBOL res 2176 144 R0
SYMATTR InstName R25
SYMATTR Value 110K
SYMBOL cap 2368 192 R0
SYMATTR InstName C14
SYMATTR Value 1µ
SYMBOL cap -144 272 R90
WINDOW 0 0 32 VBottom 2
WINDOW 3 32 32 VTop 2
SYMATTR InstName C15
SYMATTR Value 1µ
SYMBOL cap -160 160 R90
WINDOW 0 0 32 VBottom 2
WINDOW 3 32 32 VTop 2
SYMATTR InstName C16
SYMATTR Value 1µ
SYMBOL cap 976 176 R0
WINDOW 0 36 17 Left 2
WINDOW 3 35 50 Left 2
SYMATTR InstName C17
SYMATTR Value 56n
TEXT -72 496 Left 2 !.tran 0 0.005 0 0.000001
TEXT 600 -40 Left 2 ;A = 42 (suspected)
TEXT 2280 -88 Left 2 ;A = 42 (suspected)
